LAMMPS (15 Jun 2023)
Loaded 1 plugins from C:\Users\Matias\AppData\Local\LAMMPS 64-bit 15Jun2023\plugins

variable fccAu equal 4.065
variable L1 equal 4.065*4
variable L2 equal 4.065*4
variable Ti equal 200
variable Tf equal 2500
variable tstep equal 0.001
variable tdamp equal v_tstep*100
variable pdamp equal v_tstep*1000
# -- INITIALIZATION -- #
units metal
boundary p p p
atom_style atomic
timestep 0.001

region system block -16.26 16.26 -16.26 16.26 -16.26 16.26
region cube block -16.26 16.26 -16.26 16.26 -16.26 16.26
create_box 1 system
Created orthogonal box = (-16.26 -16.26 -16.26) to (16.26 16.26 16.26)

lattice fcc 4.065
Lattice spacing in x,y,z = 4.065 4.065 4.065
create_atoms 1 region cube # place atoms on lattice
Created 2048 atoms
#lattice none 1.0 # re-set lattice to default valu

# -- Define Potential -- #

pair_style eam
pair_coeff * * Au_u3.eam
Reading eam potential file Au_u3.eam with DATE: 2007-06-11
neighbor 2.0 bin
neigh_modify every 10 delay 0 check yes

## -- Relaxation -- ##
velocity all create 200 425521 rot yes mom yes dist gaussian
fix mynpt all npt temp 200 200 0.1 iso 1 1 1 drag 0.2
fix myrc all recenter INIT INIT INIT

thermo 100
thermo_style custom step temp pe ke pxx pyy pzz press
run 5000
Step          Temp          PotEng         KinEng          Pxx            Pyy            Pzz           Press
0   200           -8046.4025      52.919103      20600.656      20649.148      20615.302      20621.702
Averages over the last 26 of 51 rows, steps 2500 to 5000:
Temp PotEng KinEng Pxx Pyy Pzz Press
200.337 -7994.46 53.0083 77.791 -23.9333 49.8586 34.5721
Loop time of 10.1779 on 1 procs for 5000 steps with 2048 atoms

## -- Initial Volume -- ##
variable var equal "vol"
variable Vo equal 35033.3362240871
The initial Volume is, V0: 35033.3362240871

unfix mynpt

#--Melting--#
fix melting all npt temp 200 2500 0.1 iso 1 1 1 drag 0.2
variable dV equal "vol/v_Vo"
variable temp equal "temp"

dump mydmp all atom 200 dump.lammpstrj
thermo 1000
thermo_style custom step temp ke pe vol press

run 100000
Step          Temp          KinEng         PotEng         Volume         Press
5000   197.14663      52.164116     -7993.5025      35033.336      17.735044
Averages over the last 51 of 101 rows, steps 55000 to 105000:
Temp KinEng PotEng Volume Press
1918.73 507.687 -7192.24 40107.6 506.388
Loop time of 378.377 on 1 procs for 100000 steps with 2048 atoms
